<graph>

	<node id="1" elevation="0" lat="0" lon="0" />
	<node id="2" elevation="0" lat="0" lon="0" />
	<node id="3" elevation="0" lat="0" lon="0" />
	<node id="4" elevation="0" lat="0" lon="0" />
	<node id="5" elevation="0" lat="0" lon="0" />
	<node id="6" elevation="0" lat="0" lon="0" />
	<node id="7" elevation="0" lat="0" lon="0" />
	<node id="8" elevation="0" lat="0" lon="0" />
	<node id="9" elevation="0" lat="0" lon="0" />
	<node id="10" elevation="0" lat="0" lon="0" />
	<node id="11" elevation="0" lat="0" lon="0" />
	<node id="12" elevation="0" lat="0" lon="0" />
	<node id="13" elevation="0" lat="0" lon="0" />
	<node id="14" elevation="0" lat="0" lon="0" />
	<node id="15" elevation="0" lat="0" lon="0" />
	<node id="16" elevation="0" lat="0" lon="0" />
	<node id="17" elevation="0" lat="0" lon="0" />
	<node id="18" elevation="0" lat="0" lon="0" />
	<node id="19" elevation="0" lat="0" lon="0" />
	<node id="20" elevation="0" lat="0" lon="0" />
	<node id="21" elevation="0" lat="0" lon="0" />
	<node id="22" elevation="0" lat="0" lon="0" />
	<node id="23" elevation="0" lat="0" lon="0" />
	<node id="24" elevation="0" lat="0" lon="0" />
	<node id="25" elevation="0" lat="0" lon="0" />
	<node id="26" elevation="0" lat="0" lon="0" />
	<node id="27" elevation="0" lat="0" lon="0" />
	<node id="28" elevation="0" lat="0" lon="0" />
	<node id="29" elevation="0" lat="0" lon="0" />
	<node id="30" elevation="0" lat="0" lon="0" />
	<node id="31" elevation="0" lat="0" lon="0" />
	<node id="32" elevation="0" lat="0" lon="0" />
	<node id="33" elevation="0" lat="0" lon="0" />
	<node id="34" elevation="0" lat="0" lon="0" />
	<node id="35" elevation="0" lat="0" lon="0" />
	<node id="36" elevation="0" lat="0" lon="0" />
	<node id="37" elevation="0" lat="0" lon="0" />
	<node id="38" elevation="0" lat="0" lon="0" />
	<node id="39" elevation="0" lat="0" lon="0" />
	<node id="40" elevation="0" lat="0" lon="0" />
	<node id="41" elevation="0" lat="0" lon="0" />
	<node id="42" elevation="0" lat="0" lon="0" />
	<node id="43" elevation="0" lat="0" lon="0" />
	<node id="44" elevation="0" lat="0" lon="0" />
	<node id="45" elevation="0" lat="0" lon="0" />
	<node id="46" elevation="0" lat="0" lon="0" />
	<node id="47" elevation="0" lat="0" lon="0" />
	<node id="48" elevation="0" lat="0" lon="0" />
	<node id="49" elevation="0" lat="0" lon="0" />
	<node id="50" elevation="0" lat="0" lon="0" />
	<node id="51" elevation="0" lat="0" lon="0" />
	<node id="52" elevation="0" lat="0" lon="0" />
	<node id="53" elevation="0" lat="0" lon="0" />
	<node id="54" elevation="0" lat="0" lon="0" />
	<node id="55" elevation="0" lat="0" lon="0" />
	<node id="56" elevation="0" lat="0" lon="0" />
	<node id="57" elevation="0" lat="0" lon="0" />
	<node id="58" elevation="0" lat="0" lon="0" />
	<node id="59" elevation="0" lat="0" lon="0" />
	<node id="60" elevation="0" lat="0" lon="0" />
	<node id="61" elevation="0" lat="0" lon="0" />
	<node id="62" elevation="0" lat="0" lon="0" />
	<node id="63" elevation="0" lat="0" lon="0" />
	<node id="64" elevation="0" lat="0" lon="0" />
	<node id="65" elevation="0" lat="0" lon="0" />
	<node id="66" elevation="0" lat="0" lon="0" />
	<node id="67" elevation="0" lat="0" lon="0" />
	<node id="68" elevation="0" lat="0" lon="0" />
	<node id="69" elevation="0" lat="0" lon="0" />
	<node id="70" elevation="0" lat="0" lon="0" />
	<node id="71" elevation="0" lat="0" lon="0" />
	<node id="72" elevation="0" lat="0" lon="0" />
	<node id="73" elevation="0" lat="0" lon="0" />
	<node id="74" elevation="0" lat="0" lon="0" />
	<node id="75" elevation="0" lat="0" lon="0" />
	<node id="76" elevation="0" lat="0" lon="0" />
	<node id="77" elevation="0" lat="0" lon="0" />
	<node id="78" elevation="0" lat="0" lon="0" />
	<node id="79" elevation="0" lat="0" lon="0" />
	<node id="80" elevation="0" lat="0" lon="0" />
	<node id="81" elevation="0" lat="0" lon="0" />
	<node id="82" elevation="0" lat="0" lon="0" />
	<node id="83" elevation="0" lat="0" lon="0" />
	<node id="84" elevation="0" lat="0" lon="0" />
	<node id="85" elevation="0" lat="0" lon="0" />
	<node id="86" elevation="0" lat="0" lon="0" />
	<node id="87" elevation="0" lat="0" lon="0" />
	<node id="88" elevation="0" lat="0" lon="0" />
	<node id="89" elevation="0" lat="0" lon="0" />
	<node id="90" elevation="0" lat="0" lon="0" />
	<node id="91" elevation="0" lat="0" lon="0" />
	<node id="92" elevation="0" lat="0" lon="0" />
	<node id="93" elevation="0" lat="0" lon="0" />
	<node id="94" elevation="0" lat="0" lon="0" />
	<node id="95" elevation="0" lat="0" lon="0" />
	<node id="96" elevation="0" lat="0" lon="0" />
	<node id="97" elevation="0" lat="0" lon="0" />
	<node id="98" elevation="0" lat="0" lon="0" />
	<node id="99" elevation="0" lat="0" lon="0" />
	<node id="100" elevation="0" lat="0" lon="0" />
	<node id="101" elevation="0" lat="0" lon="0" />
	<node id="102" elevation="0" lat="0" lon="0" />
	<node id="103" elevation="0" lat="0" lon="0" />
	<node id="104" elevation="0" lat="0" lon="0" />
	<node id="105" elevation="0" lat="0" lon="0" />
	<node id="106" elevation="0" lat="0" lon="0" />
	<node id="107" elevation="0" lat="0" lon="0" />
	<node id="108" elevation="0" lat="0" lon="0" />
	<node id="109" elevation="0" lat="0" lon="0" />
	<node id="110" elevation="0" lat="0" lon="0" />
	<node id="111" elevation="0" lat="0" lon="0" />
	<node id="112" elevation="0" lat="0" lon="0" />
	<node id="113" elevation="0" lat="0" lon="0" />
	<node id="114" elevation="0" lat="0" lon="0" />
	<node id="115" elevation="0" lat="0" lon="0" />
	<node id="116" elevation="0" lat="0" lon="0" />
	<node id="117" elevation="0" lat="0" lon="0" />
	<node id="118" elevation="0" lat="0" lon="0" />
	<node id="119" elevation="0" lat="0" lon="0" />
	<node id="120" elevation="0" lat="0" lon="0" />
	<node id="121" elevation="0" lat="0" lon="0" />
	<node id="122" elevation="0" lat="0" lon="0" />
	<node id="123" elevation="0" lat="0" lon="0" />
	<node id="124" elevation="0" lat="0" lon="0" />
	<node id="125" elevation="0" lat="0" lon="0" />
	<node id="126" elevation="0" lat="0" lon="0" />
	<node id="127" elevation="0" lat="0" lon="0" />
	<node id="128" elevation="0" lat="0" lon="0" />
	<node id="129" elevation="0" lat="0" lon="0" />
	<node id="130" elevation="0" lat="0" lon="0" />
	<node id="131" elevation="0" lat="0" lon="0" />
	<node id="132" elevation="0" lat="0" lon="0" />
	<node id="133" elevation="0" lat="0" lon="0" />
	<node id="134" elevation="0" lat="0" lon="0" />
	<node id="135" elevation="0" lat="0" lon="0" />
	<node id="136" elevation="0" lat="0" lon="0" />
	<node id="137" elevation="0" lat="0" lon="0" />
	<node id="138" elevation="0" lat="0" lon="0" />
	<node id="139" elevation="0" lat="0" lon="0" />
	<node id="140" elevation="0" lat="0" lon="0" />
	<node id="141" elevation="0" lat="0" lon="0" />
	<node id="142" elevation="0" lat="0" lon="0" />
	<node id="143" elevation="0" lat="0" lon="0" />
	<node id="144" elevation="0" lat="0" lon="0" />
	<node id="145" elevation="0" lat="0" lon="0" />
	<node id="146" elevation="0" lat="0" lon="0" />
	<node id="147" elevation="0" lat="0" lon="0" />
	<node id="148" elevation="0" lat="0" lon="0" />
	<node id="149" elevation="0" lat="0" lon="0" />
	<node id="150" elevation="0" lat="0" lon="0" />
	<node id="151" elevation="0" lat="0" lon="0" />
	<node id="152" elevation="0" lat="0" lon="0" />
	<node id="153" elevation="0" lat="0" lon="0" />
	<node id="154" elevation="0" lat="0" lon="0" />
	<node id="155" elevation="0" lat="0" lon="0" />
	<node id="156" elevation="0" lat="0" lon="0" />
	<node id="157" elevation="0" lat="0" lon="0" />
	<node id="158" elevation="0" lat="0" lon="0" />
	<node id="159" elevation="0" lat="0" lon="0" />
	<node id="160" elevation="0" lat="0" lon="0" />
	<node id="161" elevation="0" lat="0" lon="0" />
	<node id="162" elevation="0" lat="0" lon="0" />
	<node id="163" elevation="0" lat="0" lon="0" />
	<node id="164" elevation="0" lat="0" lon="0" />
	<node id="165" elevation="0" lat="0" lon="0" />
	<node id="166" elevation="0" lat="0" lon="0" />
	<node id="167" elevation="0" lat="0" lon="0" />
	<node id="168" elevation="0" lat="0" lon="0" />
	<node id="169" elevation="0" lat="0" lon="0" />
	<node id="170" elevation="0" lat="0" lon="0" />
	<node id="171" elevation="0" lat="0" lon="0" />
	<node id="172" elevation="0" lat="0" lon="0" />
	<node id="173" elevation="0" lat="0" lon="0" />
	<node id="174" elevation="0" lat="0" lon="0" />
	<node id="175" elevation="0" lat="0" lon="0" />
	<node id="176" elevation="0" lat="0" lon="0" />
	<node id="177" elevation="0" lat="0" lon="0" />
	<node id="178" elevation="0" lat="0" lon="0" />
	<node id="179" elevation="0" lat="0" lon="0" />
	<node id="180" elevation="0" lat="0" lon="0" />
	<node id="181" elevation="0" lat="0" lon="0" />
	<node id="182" elevation="0" lat="0" lon="0" />
	<node id="183" elevation="0" lat="0" lon="0" />
	<node id="184" elevation="0" lat="0" lon="0" />
	<node id="185" elevation="0" lat="0" lon="0" />
	<node id="186" elevation="0" lat="0" lon="0" />
	<node id="187" elevation="0" lat="0" lon="0" />
	<node id="188" elevation="0" lat="0" lon="0" />
	<node id="189" elevation="0" lat="0" lon="0" />
	<node id="190" elevation="0" lat="0" lon="0" />
	<node id="191" elevation="0" lat="0" lon="0" />
	<node id="192" elevation="0" lat="0" lon="0" />
	<node id="193" elevation="0" lat="0" lon="0" />
	<node id="194" elevation="0" lat="0" lon="0" />
	<node id="195" elevation="0" lat="0" lon="0" />
	<node id="196" elevation="0" lat="0" lon="0" />
	<node id="197" elevation="0" lat="0" lon="0" />
	<node id="198" elevation="0" lat="0" lon="0" />
	<node id="199" elevation="0" lat="0" lon="0" />
	<node id="200" elevation="0" lat="0" lon="0" />
	<node id="201" elevation="0" lat="0" lon="0" />
	<node id="202" elevation="0" lat="0" lon="0" />
	<node id="203" elevation="0" lat="0" lon="0" />
	<node id="204" elevation="0" lat="0" lon="0" />
	<node id="205" elevation="0" lat="0" lon="0" />
	<node id="206" elevation="0" lat="0" lon="0" />
	<node id="207" elevation="0" lat="0" lon="0" />
	<node id="208" elevation="0" lat="0" lon="0" />
	<node id="209" elevation="0" lat="0" lon="0" />
	<node id="210" elevation="0" lat="0" lon="0" />
	<node id="211" elevation="0" lat="0" lon="0" />
	<node id="212" elevation="0" lat="0" lon="0" />
	<node id="213" elevation="0" lat="0" lon="0" />
	<node id="214" elevation="0" lat="0" lon="0" />
	<node id="215" elevation="0" lat="0" lon="0" />
	<node id="216" elevation="0" lat="0" lon="0" />
	<node id="217" elevation="0" lat="0" lon="0" />
	<node id="218" elevation="0" lat="0" lon="0" />
	<node id="219" elevation="0" lat="0" lon="0" />
	<node id="220" elevation="0" lat="0" lon="0" />
	<node id="221" elevation="0" lat="0" lon="0" />
	<node id="222" elevation="0" lat="0" lon="0" />
	<node id="223" elevation="0" lat="0" lon="0" />
	<node id="224" elevation="0" lat="0" lon="0" />
	<node id="225" elevation="0" lat="0" lon="0" />
	<node id="226" elevation="0" lat="0" lon="0" />
	<node id="227" elevation="0" lat="0" lon="0" />
	<node id="228" elevation="0" lat="0" lon="0" />
	<node id="229" elevation="0" lat="0" lon="0" />
	<node id="230" elevation="0" lat="0" lon="0" />
	<node id="231" elevation="0" lat="0" lon="0" />
	<node id="232" elevation="0" lat="0" lon="0" />
	<node id="233" elevation="0" lat="0" lon="0" />
	<node id="234" elevation="0" lat="0" lon="0" />
	<node id="235" elevation="0" lat="0" lon="0" />
	<node id="236" elevation="0" lat="0" lon="0" />
	<node id="237" elevation="0" lat="0" lon="0" />
	<node id="238" elevation="0" lat="0" lon="0" />
	<node id="239" elevation="0" lat="0" lon="0" />
	<node id="240" elevation="0" lat="0" lon="0" />
	<node id="241" elevation="0" lat="0" lon="0" />
	<node id="242" elevation="0" lat="0" lon="0" />
	<node id="243" elevation="0" lat="0" lon="0" />
	<node id="244" elevation="0" lat="0" lon="0" />
	<node id="245" elevation="0" lat="0" lon="0" />
	<node id="246" elevation="0" lat="0" lon="0" />
	<node id="247" elevation="0" lat="0" lon="0" />
	<node id="248" elevation="0" lat="0" lon="0" />
	<node id="249" elevation="0" lat="0" lon="0" />
	<node id="250" elevation="0" lat="0" lon="0" />
	<node id="251" elevation="0" lat="0" lon="0" />
	<node id="252" elevation="0" lat="0" lon="0" />
	<node id="253" elevation="0" lat="0" lon="0" />
	<node id="254" elevation="0" lat="0" lon="0" />
	<node id="255" elevation="0" lat="0" lon="0" />
	<node id="256" elevation="0" lat="0" lon="0" />
	<node id="257" elevation="0" lat="0" lon="0" />
	<node id="258" elevation="0" lat="0" lon="0" />
	<node id="259" elevation="0" lat="0" lon="0" />
	<node id="260" elevation="0" lat="0" lon="0" />
	<node id="261" elevation="0" lat="0" lon="0" />
	<node id="262" elevation="0" lat="0" lon="0" />
	<node id="263" elevation="0" lat="0" lon="0" />
	<node id="264" elevation="0" lat="0" lon="0" />
	<node id="265" elevation="0" lat="0" lon="0" />
	<node id="266" elevation="0" lat="0" lon="0" />
	<node id="267" elevation="0" lat="0" lon="0" />
	<node id="268" elevation="0" lat="0" lon="0" />
	<node id="269" elevation="0" lat="0" lon="0" />
	<node id="270" elevation="0" lat="0" lon="0" />
	<node id="271" elevation="0" lat="0" lon="0" />
	<node id="272" elevation="0" lat="0" lon="0" />
	<node id="273" elevation="0" lat="0" lon="0" />
	<node id="274" elevation="0" lat="0" lon="0" />
	<node id="275" elevation="0" lat="0" lon="0" />
	<node id="276" elevation="0" lat="0" lon="0" />
	<node id="277" elevation="0" lat="0" lon="0" />
	<node id="278" elevation="0" lat="0" lon="0" />
	<node id="279" elevation="0" lat="0" lon="0" />
	<node id="280" elevation="0" lat="0" lon="0" />
	<node id="281" elevation="0" lat="0" lon="0" />
	<node id="282" elevation="0" lat="0" lon="0" />
	<node id="283" elevation="0" lat="0" lon="0" />
	<node id="284" elevation="0" lat="0" lon="0" />
	<node id="285" elevation="0" lat="0" lon="0" />
	<node id="286" elevation="0" lat="0" lon="0" />
	<node id="287" elevation="0" lat="0" lon="0" />
	<node id="288" elevation="0" lat="0" lon="0" />
	<node id="289" elevation="0" lat="0" lon="0" />
	<node id="290" elevation="0" lat="0" lon="0" />
	<node id="291" elevation="0" lat="0" lon="0" />
	<node id="292" elevation="0" lat="0" lon="0" />
	<node id="293" elevation="0" lat="0" lon="0" />
	<node id="294" elevation="0" lat="0" lon="0" />
	<node id="295" elevation="0" lat="0" lon="0" />
	<node id="296" elevation="0" lat="0" lon="0" />
	<node id="297" elevation="0" lat="0" lon="0" />
	<node id="298" elevation="0" lat="0" lon="0" />
	<node id="299" elevation="0" lat="0" lon="0" />
	<node id="300" elevation="0" lat="0" lon="0" />
	<node id="301" elevation="0" lat="0" lon="0" />
	<node id="302" elevation="0" lat="0" lon="0" />
	<node id="303" elevation="0" lat="0" lon="0" />
	<node id="304" elevation="0" lat="0" lon="0" />
	<node id="305" elevation="0" lat="0" lon="0" />
	<node id="306" elevation="0" lat="0" lon="0" />
	<node id="307" elevation="0" lat="0" lon="0" />
	<node id="308" elevation="0" lat="0" lon="0" />
	<node id="309" elevation="0" lat="0" lon="0" />
	<node id="310" elevation="0" lat="0" lon="0" />
	<node id="311" elevation="0" lat="0" lon="0" />
	<node id="312" elevation="0" lat="0" lon="0" />
	<node id="313" elevation="0" lat="0" lon="0" />
	<node id="314" elevation="0" lat="0" lon="0" />
	<node id="315" elevation="0" lat="0" lon="0" />
	<node id="316" elevation="0" lat="0" lon="0" />
	<node id="317" elevation="0" lat="0" lon="0" />
	<node id="318" elevation="0" lat="0" lon="0" />
	<node id="319" elevation="0" lat="0" lon="0" />
	<node id="320" elevation="0" lat="0" lon="0" />
	<node id="321" elevation="0" lat="0" lon="0" />
	<node id="322" elevation="0" lat="0" lon="0" />
	<node id="323" elevation="0" lat="0" lon="0" />
	<node id="324" elevation="0" lat="0" lon="0" />
	<node id="325" elevation="0" lat="0" lon="0" />
	<node id="326" elevation="0" lat="0" lon="0" />
	<node id="327" elevation="0" lat="0" lon="0" />
	<node id="328" elevation="0" lat="0" lon="0" />
	<node id="329" elevation="0" lat="0" lon="0" />
	<node id="330" elevation="0" lat="0" lon="0" />
	<node id="331" elevation="0" lat="0" lon="0" />
	<node id="332" elevation="0" lat="0" lon="0" />
	<node id="333" elevation="0" lat="0" lon="0" />
	<node id="334" elevation="0" lat="0" lon="0" />
	<node id="335" elevation="0" lat="0" lon="0" />
	<node id="336" elevation="0" lat="0" lon="0" />
	<node id="337" elevation="0" lat="0" lon="0" />
	<node id="338" elevation="0" lat="0" lon="0" />
	<node id="339" elevation="0" lat="0" lon="0" />
	<node id="340" elevation="0" lat="0" lon="0" />
	<node id="341" elevation="0" lat="0" lon="0" />
	<node id="342" elevation="0" lat="0" lon="0" />
	<node id="343" elevation="0" lat="0" lon="0" />
	<node id="344" elevation="0" lat="0" lon="0" />
	<node id="345" elevation="0" lat="0" lon="0" />
	<node id="346" elevation="0" lat="0" lon="0" />
	<node id="347" elevation="0" lat="0" lon="0" />
	<node id="348" elevation="0" lat="0" lon="0" />
	<node id="349" elevation="0" lat="0" lon="0" />
	<node id="350" elevation="0" lat="0" lon="0" />
	<node id="351" elevation="0" lat="0" lon="0" />
	<node id="352" elevation="0" lat="0" lon="0" />
	<node id="353" elevation="0" lat="0" lon="0" />
	<node id="354" elevation="0" lat="0" lon="0" />
	<node id="355" elevation="0" lat="0" lon="0" />
	<node id="356" elevation="0" lat="0" lon="0" />
	<node id="357" elevation="0" lat="0" lon="0" />
	<node id="358" elevation="0" lat="0" lon="0" />
	<node id="359" elevation="0" lat="0" lon="0" />
	<node id="360" elevation="0" lat="0" lon="0" />
	<node id="361" elevation="0" lat="0" lon="0" />
	<node id="362" elevation="0" lat="0" lon="0" />
	<node id="363" elevation="0" lat="0" lon="0" />
	<node id="364" elevation="0" lat="0" lon="0" />
	<node id="365" elevation="0" lat="0" lon="0" />
	<node id="366" elevation="0" lat="0" lon="0" />
	<node id="367" elevation="0" lat="0" lon="0" />
	<node id="368" elevation="0" lat="0" lon="0" />
	<node id="369" elevation="0" lat="0" lon="0" />
	<node id="370" elevation="0" lat="0" lon="0" />
	<node id="371" elevation="0" lat="0" lon="0" />
	<node id="372" elevation="0" lat="0" lon="0" />
	<node id="373" elevation="0" lat="0" lon="0" />
	<node id="374" elevation="0" lat="0" lon="0" />
	<node id="375" elevation="0" lat="0" lon="0" />
	<node id="376" elevation="0" lat="0" lon="0" />
	<node id="377" elevation="0" lat="0" lon="0" />
	<node id="378" elevation="0" lat="0" lon="0" />
	<node id="379" elevation="0" lat="0" lon="0" />
	<node id="380" elevation="0" lat="0" lon="0" />
	<node id="381" elevation="0" lat="0" lon="0" />
	<node id="382" elevation="0" lat="0" lon="0" />
	<node id="383" elevation="0" lat="0" lon="0" />
	<node id="384" elevation="0" lat="0" lon="0" />
	<node id="385" elevation="0" lat="0" lon="0" />
	<node id="386" elevation="0" lat="0" lon="0" />
	<node id="387" elevation="0" lat="0" lon="0" />
	<node id="388" elevation="0" lat="0" lon="0" />
	<node id="389" elevation="0" lat="0" lon="0" />
	<node id="390" elevation="0" lat="0" lon="0" />
	<node id="391" elevation="0" lat="0" lon="0" />
	<node id="392" elevation="0" lat="0" lon="0" />
	<node id="393" elevation="0" lat="0" lon="0" />
	<node id="394" elevation="0" lat="0" lon="0" />
	<node id="395" elevation="0" lat="0" lon="0" />
	<node id="396" elevation="0" lat="0" lon="0" />
	<node id="397" elevation="0" lat="0" lon="0" />
	<node id="398" elevation="0" lat="0" lon="0" />
	<node id="399" elevation="0" lat="0" lon="0" />
	<node id="400" elevation="0" lat="0" lon="0" />
	<node id="401" elevation="0" lat="0" lon="0" />
	<node id="402" elevation="0" lat="0" lon="0" />
	<node id="403" elevation="0" lat="0" lon="0" />
	<node id="404" elevation="0" lat="0" lon="0" />
	<node id="405" elevation="0" lat="0" lon="0" />
	<node id="406" elevation="0" lat="0" lon="0" />
	<node id="407" elevation="0" lat="0" lon="0" />
	<node id="408" elevation="0" lat="0" lon="0" />
	<node id="409" elevation="0" lat="0" lon="0" />
	<node id="410" elevation="0" lat="0" lon="0" />
	<node id="411" elevation="0" lat="0" lon="0" />
	<node id="412" elevation="0" lat="0" lon="0" />
	<node id="413" elevation="0" lat="0" lon="0" />
	<node id="414" elevation="0" lat="0" lon="0" />
	<node id="415" elevation="0" lat="0" lon="0" />
	<node id="416" elevation="0" lat="0" lon="0" />

	<edge id="1" from="1" to="117" capacity="9000.0" lenght="1609.344" fftime="1.090458488" alpha="0.15" beta="4.0" velocity="24.597360005143088" directed="true" />
	<edge id="2" from="2" to="87" capacity="9000.0" lenght="1609.344" fftime="1.090458488" alpha="0.15" beta="4.0" velocity="24.597360005143088" directed="true" />
	<edge id="3" from="3" to="74" capacity="9000.0" lenght="1609.344" fftime="1.090458488" alpha="0.15" beta="4.0" velocity="24.597360005143088" directed="true" />
	<edge id="4" from="4" to="233" capacity="9000.0" lenght="1609.344" fftime="1.090458488" alpha="0.15" beta="4.0" velocity="24.597360005143088" directed="true" />
	<edge id="5" from="5" to="165" capacity="9000.0" lenght="1609.344" fftime="1.090458488" alpha="0.15" beta="4.0" velocity="24.597360005143088" directed="true" />
	<edge id="6" from="6" to="213" capacity="9000.0" lenght="1609.344" fftime="1.090458488" alpha="0.15" beta="4.0" velocity="24.597360005143088" directed="true" />
	<edge id="7" from="7" to="253" capacity="9000.0" lenght="1609.344" fftime="1.090458488" alpha="0.15" beta="4.0" velocity="24.597360005143088" directed="true" />
	<edge id="8" from="8" to="411" capacity="5400.0" lenght="804.672" fftime="1.0" alpha="0.15" beta="4.0" velocity="13.411200000000001" directed="true" />
	<edge id="9" from="9" to="379" capacity="5400.0" lenght="804.672" fftime="1.0" alpha="0.15" beta="4.0" velocity="13.411200000000001" directed="true" />
	<edge id="10" from="9" to="395" capacity="5400.0" lenght="804.672" fftime="1.0" alpha="0.15" beta="4.0" velocity="13.411200000000001" directed="true" />
	<edge id="11" from="10" to="338" capacity="5400.0" lenght="804.672" fftime="1.0" alpha="0.15" beta="4.0" velocity="13.411200000000001" directed="true" />
	<edge id="12" from="10" to="362" capacity="5400.0" lenght="804.672" fftime="1.0" alpha="0.15" beta="4.0" velocity="13.411200000000001" directed="true" />
	<edge id="13" from="11" to="309" capacity="5400.0" lenght="804.672" fftime="1.0" alpha="0.15" beta="4.0" velocity="13.411200000000001" directed="true" />
	<edge id="14" from="12" to="275" capacity="5400.0" lenght="804.672" fftime="1.0" alpha="0.15" beta="4.0" velocity="13.411200000000001" directed="true" />
	<edge id="15" from="13" to="262" capacity="5400.0" lenght="804.672" fftime="1.0" alpha="0.15" beta="4.0" velocity="13.411200000000001" directed="true" />
	<edge id="16" from="14" to="257" capacity="5400.0" lenght="804.672" fftime="1.0" alpha="0.15" beta="4.0" velocity="13.411200000000001" directed="true" />
	<edge id="17" from="15" to="254" capacity="5400.0" lenght="804.672" fftime="1.0" alpha="0.15" beta="4.0" velocity="13.411200000000001" directed="true" />
	<edge id="18" from="16" to="263" capacity="5400.0" lenght="804.672" fftime="1.0" alpha="0.15" beta="4.0" velocity="13.411200000000001" directed="true" />
	<edge id="19" from="17" to="276" capacity="5400.0" lenght="804.672" fftime="1.0" alpha="0.15" beta="4.0" velocity="13.411200000000001" directed="true" />
	<edge id="20" from="18" to="322" capacity="5400.0" lenght="804.672" fftime="1.0" alpha="0.15" beta="4.0" velocity="13.411200000000001" directed="true" />
	<edge id="21" from="18" to="348" capacity="5400.0" lenght="804.672" fftime="1.0" alpha="0.15" beta="4.0" velocity="13.411200000000001" directed="true" />
	<edge id="22" from="19" to="364" capacity="5400.0" lenght="804.672" fftime="1.0" alpha="0.15" beta="4.0" velocity="13.411200000000001" directed="true" />
	<edge id="23" from="19" to="380" capacity="5400.0" lenght="804.672" fftime="1.0" alpha="0.15" beta="4.0" velocity="13.411200000000001" directed="true" />
	<edge id="24" from="20" to="397" capacity="5400.0" lenght="804.672" fftime="1.0" alpha="0.15" beta="4.0" velocity="13.411200000000001" directed="true" />
	<edge id="25" from="21" to="412" capacity="5400.0" lenght="804.672" fftime="1.0" alpha="0.15" beta="4.0" velocity="13.411200000000001" directed="true" />
	<edge id="26" from="21" to="413" capacity="5400.0" lenght="804.672" fftime="1.0" alpha="0.15" beta="4.0" velocity="13.411200000000001" directed="true" />
	<edge id="27" from="22" to="414" capacity="5400.0" lenght="804.672" fftime="1.0" alpha="0.15" beta="4.0" velocity="13.411200000000001" directed="true" />
	<edge id="28" from="22" to="415" capacity="5400.0" lenght="804.672" fftime="1.0" alpha="0.15" beta="4.0" velocity="13.411200000000001" directed="true" />
	<edge id="29" from="23" to="416" capacity="5400.0" lenght="804.672" fftime="1.0" alpha="0.15" beta="4.0" velocity="13.411200000000001" directed="true" />
	<edge id="30" from="24" to="266" capacity="12600.0" lenght="402.336" fftime="0.149068323" alpha="0.15" beta="4.0" velocity="44.98339999437707" directed="true" />
	<edge id="31" from="24" to="267" capacity="12600.0" lenght="402.336" fftime="0.149068323" alpha="0.15" beta="4.0" velocity="44.98339999437707" directed="true" />
	<edge id="32" from="25" to="268" capacity="12600.0" lenght="402.336" fftime="0.149068323" alpha="0.15" beta="4.0" velocity="44.98339999437707" directed="true" />
	<edge id="33" from="25" to="269" capacity="12600.0" lenght="402.336" fftime="0.149068323" alpha="0.15" beta="4.0" velocity="44.98339999437707" directed="true" />
	<edge id="34" from="26" to="273" capacity="12600.0" lenght="402.336" fftime="0.149068323" alpha="0.15" beta="4.0" velocity="44.98339999437707" directed="true" />
	<edge id="35" from="26" to="274" capacity="12600.0" lenght="402.336" fftime="0.149068323" alpha="0.15" beta="4.0" velocity="44.98339999437707" directed="true" />
	<edge id="36" from="27" to="302" capacity="12600.0" lenght="402.336" fftime="0.149068323" alpha="0.15" beta="4.0" velocity="44.98339999437707" directed="true" />
	<edge id="37" from="27" to="303" capacity="12600.0" lenght="402.336" fftime="0.149068323" alpha="0.15" beta="4.0" velocity="44.98339999437707" directed="true" />
	<edge id="38" from="28" to="303" capacity="12600.0" lenght="402.336" fftime="0.149068323" alpha="0.15" beta="4.0" velocity="44.98339999437707" directed="true" />
	<edge id="39" from="28" to="304" capacity="12600.0" lenght="402.336" fftime="0.149068323" alpha="0.15" beta="4.0" velocity="44.98339999437707" directed="true" />
	<edge id="40" from="29" to="308" capacity="12600.0" lenght="402.336" fftime="0.149068323" alpha="0.15" beta="4.0" velocity="44.98339999437707" directed="true" />
	<edge id="41" from="29" to="337" capacity="12600.0" lenght="402.336" fftime="0.149068323" alpha="0.15" beta="4.0" velocity="44.98339999437707" directed="true" />
	<edge id="42" from="30" to="340" capacity="12600.0" lenght="402.336" fftime="0.149068323" alpha="0.15" beta="4.0" velocity="44.98339999437707" directed="true" />
	<edge id="43" from="30" to="341" capacity="12600.0" lenght="402.336" fftime="0.149068323" alpha="0.15" beta="4.0" velocity="44.98339999437707" directed="true" />
	<edge id="44" from="31" to="329" capacity="12600.0" lenght="402.336" fftime="0.149068323" alpha="0.15" beta="4.0" velocity="44.98339999437707" directed="true" />
	<edge id="45" from="31" to="330" capacity="12600.0" lenght="402.336" fftime="0.149068323" alpha="0.15" beta="4.0" velocity="44.98339999437707" directed="true" />
	<edge id="46" from="32" to="332" capacity="12600.0" lenght="402.336" fftime="0.149068323" alpha="0.15" beta="4.0" velocity="44.98339999437707" directed="true" />
	<edge id="47" from="32" to="333" capacity="12600.0" lenght="402.336" fftime="0.149068323" alpha="0.15" beta="4.0" velocity="44.98339999437707" directed="true" />
	<edge id="48" from="33" to="337" capacity="12600.0" lenght="402.336" fftime="0.149068323" alpha="0.15" beta="4.0" velocity="44.98339999437707" directed="true" />
	<edge id="49" from="33" to="361" capacity="12600.0" lenght="402.336" fftime="0.149068323" alpha="0.15" beta="4.0" velocity="44.98339999437707" directed="true" />
	<edge id="50" from="34" to="369" capacity="12600.0" lenght="402.336" fftime="0.149068323" alpha="0.15" beta="4.0" velocity="44.98339999437707" directed="true" />
	<edge id="51" from="34" to="385" capacity="12600.0" lenght="402.336" fftime="0.149068323" alpha="0.15" beta="4.0" velocity="44.98339999437707" directed="true" />
	<edge id="52" from="35" to="373" capacity="12600.0" lenght="402.336" fftime="0.149068323" alpha="0.15" beta="4.0" velocity="44.98339999437707" directed="true" />
	<edge id="53" from="35" to="389" capacity="12600.0" lenght="402.336" fftime="0.149068323" alpha="0.15" beta="4.0" velocity="44.98339999437707" directed="true" />
	<edge id="54" from="36" to="378" capacity="12600.0" lenght="402.336" fftime="0.149068323" alpha="0.15" beta="4.0" velocity="44.98339999437707" directed="true" />
	<edge id="55" from="36" to="394" capacity="12600.0" lenght="402.336" fftime="0.149068323" alpha="0.15" beta="4.0" velocity="44.98339999437707" directed="true" />
	<edge id="56" from="37" to="401" capacity="12600.0" lenght="402.336" fftime="0.149068323" alpha="0.15" beta="4.0" velocity="44.98339999437707" directed="true" />
	<edge id="57" from="37" to="402" capacity="12600.0" lenght="402.336" fftime="0.149068323" alpha="0.15" beta="4.0" velocity="44.98339999437707" directed="true" />
	<edge id="58" from="38" to="406" capacity="12600.0" lenght="402.336" fftime="0.149068323" alpha="0.15" beta="4.0" velocity="44.98339999437707" directed="true" />
	<edge id="59" from="38" to="407" capacity="12600.0" lenght="402.336" fftime="0.149068323" alpha="0.15" beta="4.0" velocity="44.98339999437707" directed="true" />
	<edge id="60" from="39" to="266" capacity="5400.0" lenght="1174.6992" fftime="1.459848485" alpha="0.15" beta="4.0" velocity="13.411199998608074" directed="true" />